Updated version of the 12/14/2019 OpenFAST version 1.0 compatible model of the V27 rotor for use in Phase2 of the SWiFT Benchmark.  
