This folder contains various versions of the V27 FAST models for different versions of FAST and OpenFAST.

V27_OF_Nalu/ Versions of V27 OpenFAST model to run with Nalu.  Remember to turn Induction off in AeroDyn!

V27_OF_v1/  Versionf of V27 OpenFAST model to run with AeroDyn and BEMT.
