This folder contains input files for running the V27 OpenFAST model with Nalu.
